10
	Energy:       3.2868357
C         -5.40406        1.26922       -0.01020
C         -6.02450        2.49284        0.10884
C         -4.00783        1.50161       -0.00138
C         -3.81866        2.85997        0.12276
N         -5.05160        3.45485        0.18913
H         -5.21760        4.44867        0.28274
H         -5.90288        0.31242       -0.09431
H         -7.07189        2.76082        0.14321
H         -3.22500        0.75812       -0.07741
H         -2.91503        3.45268        0.16945
